/*---------------------------------------------------------------------------*\
| =========                 |                                                 |
| \\      /  F ield         | OpenFOAM: The Open Source CFD Toolbox           |
|  \\    /   O peration     | Version:  v1912                                 |
|   \\  /    A nd           | Website:  www.openfoam.com                      |
|    \\/     M anipulation  |                                                 |
\*---------------------------------------------------------------------------*/
Build  : _f3950763fe-20191219 OPENFOAM=1912
Arch   : "LSB;label=32;scalar=64"
Exec   : blockMesh
Date   : Feb 19 2026
Time   : 02:22:15
Host   : geoocean27
PID    : 318513
I/O    : uncollated
Case   : /home/alonsoap_foam/OpenFOAM/alonsoap_foam-v1912/run/HyCFD/outputs/openfoam_cases/0007
nProcs : 1
trapFpe: Floating point exception trapping enabled (FOAM_SIGFPE).
fileModificationChecking : Monitoring run-time modified files using timeStampMaster (fileModificationSkew 10)
allowSystemOperations : Allowing user-supplied system call operations

// * * * * * * * * * * * * * * * * * * * * * * * * * * * * * * * * * * * * * //
Create time

--> FOAM Warning : 
    From function static Foam::IOstreamOption::compressionType Foam::IOstreamOption::compressionEnum(const Foam::word&)
    in file db/IOstreams/IOstreams/IOstreamOption.C at line 88
    Unknown compression specifier 'uncompressed', assuming no compression
--> FOAM Warning : 
    From function blockMesh
    in file findBlockMeshDict.H at line 36
    Using the old blockMeshDict location: "constant/polyMesh/blockMeshDict"
    instead of the default location:  "system/blockMeshDict"

Creating block mesh from "constant/polyMesh/blockMeshDict"
--> FOAM IOWarning :
    Found [v1012] 'convertToMeters' entry instead of 'scale' in dictionary "/home/alonsoap_foam/OpenFOAM/alonsoap_foam-v1912/run/HyCFD/outputs/openfoam_cases/0007/constant/polyMesh/blockMeshDict" 

    This keyword is deemed to be 108 months old.

No non-linear block edges defined
No non-planar block faces defined
Creating topology blocks
Creating topology patches

Reading patches section

Creating block mesh topology

Reading physicalType from existing boundary file

Default patch type set to empty

Check topology

	Basic statistics
		Number of internal faces : 59
		Number of boundary faces : 98
		Number of defined boundary faces : 98
		Number of undefined boundary faces : 0
	Checking patch -> block consistency

Creating block offsets
Creating merge list...
Not deleting polyMesh directory "constant/polyMesh"
    because it contains blockMeshDict

Creating polyMesh from blockMesh
Creating patches
Creating cells
Creating points with scale 1
    Block 0 cell size :
        i : 2 .. 2
        j : 0.758571 .. 0.758571
        k : 0.1 .. 0.1

    Block 1 cell size :
        i : 2 .. 2
        j : 0.268571 .. 0.268571
        k : 0.1 .. 0.1

    Block 2 cell size :
        i : 2 .. 2
        j : 0.2875 .. 0.2875
        k : 0.1 .. 0.1

    Block 3 cell size :
        i : 2 .. 2
        j : 1.39 .. 1.39
        k : 0.1 .. 0.1

    Block 4 cell size :
        i : 1.00314 .. 1.00314
        j : 0.758571 .. 0.758571
        k : 0.1 .. 0.1

    Block 5 cell size :
        i : 1.00189 .. 1.00189
        j : 0.268571 .. 0.268571
        k : 0.1 .. 0.1

    Block 6 cell size :
        i : 1.00189 .. 1.00189
        j : 0.2875 .. 0.2875
        k : 0.1 .. 0.1

    Block 7 cell size :
        i : 1.00189 .. 1.00189
        j : 1.39 .. 1.39
        k : 0.1 .. 0.1

    Block 8 cell size :
        i : 0.99071 .. 0.99071
        j : 0.0103571 .. 0.0103571
        k : 0.1 .. 0.1

    Block 9 cell size :
        i : 0.99071 .. 0.99071
        j : 0.247857 .. 0.247857
        k : 0.1 .. 0.1

    Block 10 cell size :
        i : 0.989503 .. 0.989503
        j : 0.2875 .. 0.2875
        k : 0.1 .. 0.1

    Block 11 cell size :
        i : 0.989474 .. 0.989474
        j : 1.39 .. 1.39
        k : 0.1 .. 0.1

    Block 12 cell size :
        i : 1 .. 1
        j : 0.0103571 .. 0.0103571
        k : 0.1 .. 0.1

    Block 13 cell size :
        i : 1 .. 1
        j : 0.0207143 .. 0.0207143
        k : 0.1 .. 0.1

    Block 14 cell size :
        i : 1 .. 1
        j : 0.282321 .. 0.282321
        k : 0.1 .. 0.1

    Block 15 cell size :
        i : 1 .. 1
        j : 1.39 .. 1.39
        k : 0.1 .. 0.1

    Block 16 cell size :
        i : 0.251247 .. 0.251247
        j : 0.0103571 .. 0.0103571
        k : 0.1 .. 0.1

    Block 17 cell size :
        i : 0.251247 .. 0.251247
        j : 0.0207143 .. 0.0207143
        k : 0.1 .. 0.1

    Block 18 cell size :
        i : 0.251247 .. 0.251247
        j : 0.282321 .. 0.282321
        k : 0.1 .. 0.1

    Block 19 cell size :
        i : 0.25 .. 0.25
        j : 1.39 .. 1.39
        k : 0.1 .. 0.1

    Block 20 cell size :
        i : 0.251247 .. 0.251247
        j : 0.0103571 .. 0.0103571
        k : 0.1 .. 0.1

    Block 21 cell size :
        i : 0.251247 .. 0.251247
        j : 0.0207143 .. 0.0207143
        k : 0.1 .. 0.1

    Block 22 cell size :
        i : 0.251247 .. 0.251247
        j : 0.25375 .. 0.25375
        k : 0.1 .. 0.1

    Block 23 cell size :
        i : 0.25 .. 0.25
        j : 1.39 .. 1.39
        k : 0.1 .. 0.1

    Block 24 cell size :
        i : 0.251247 .. 0.251247
        j : 0.0103571 .. 0.0103571
        k : 0.1 .. 0.1

    Block 25 cell size :
        i : 0.251247 .. 0.251247
        j : 0.0207143 .. 0.0207143
        k : 0.1 .. 0.1

    Block 26 cell size :
        i : 0.251247 .. 0.251247
        j : 0.237679 .. 0.237679
        k : 0.1 .. 0.1

    Block 27 cell size :
        i : 0.25 .. 0.25
        j : 1.39 .. 1.39
        k : 0.1 .. 0.1

    Block 28 cell size :
        i : 0.502494 .. 0.502494
        j : 0.0103571 .. 0.0103571
        k : 0.1 .. 0.1

    Block 29 cell size :
        i : 0.502494 .. 0.502494
        j : 0.0207143 .. 0.0207143
        k : 0.1 .. 0.1

    Block 30 cell size :
        i : 0.502494 .. 0.502494
        j : 0.182321 .. 0.182321
        k : 0.1 .. 0.1

    Block 31 cell size :
        i : 0.500004 .. 0.500004
        j : 1.39 .. 1.39
        k : 0.1 .. 0.1

    Block 32 cell size :
        i : 0.502494 .. 0.502494
        j : 0.0103571 .. 0.0103571
        k : 0.1 .. 0.1

    Block 33 cell size :
        i : 0.502494 .. 0.502494
        j : 0.0207143 .. 0.0207143
        k : 0.1 .. 0.1

    Block 34 cell size :
        i : 0.502494 .. 0.502494
        j : 0.00258929 .. 0.00258929
        k : 0.1 .. 0.1

    Block 35 cell size :
        i : 0.502494 .. 0.502494
        j : 1.3465 .. 1.3465
        k : 0.1 .. 0.1

